Circuit: * C:\Users\User\Desktop\Demo1\OpAmp_Circuit.asc

Per .tran options, skipping operating point for transient analysis.

Date: Sun Sep 30 16:15:23 2018
Total elapsed time: 0.023 seconds.

tnom = 27
temp = 27
method = modified trap
totiter = 2036
traniter = 2036
tranpoints = 1019
accept = 1019
rejected = 0
matrix size = 4
fillins = 0
solver = Normal
Matrix Compiler1:       9 opcodes  0.1/[0.0]/0.0
Matrix Compiler2: off  [0.0]/0.1/0.0

